82

C         -1.31293       -1.75478        0.93675
C         -0.00026       -2.14482        0.86752
C          1.16793       -1.19497        0.93461
C          0.72811        0.14053        0.30734
C         -0.74621        0.23821       -0.12239
C         -1.76914       -0.29713        0.90307
C         -2.33331       -2.65189        0.58816
C         -2.00522       -3.98651        0.30475
C         -0.65829       -4.37463        0.21674
C          0.35372       -3.42756        0.43213
C         -3.53977       -1.85417        0.33082
C         -3.20221       -0.47935        0.39809
C         -4.13796        0.47956        0.02685
C         -5.41972        0.07280       -0.36300
C         -5.76202       -1.28255       -0.38901
C         -4.81943       -2.25650       -0.05283
C          2.22530       -2.01957        0.18336
C          1.77045       -3.35757        0.03549
C          2.59891       -4.32477       -0.53148
C          3.87109       -3.95166       -0.97584
C          4.29953       -2.62601       -0.86937
C          3.47726       -1.65192       -0.28573
N          1.57924        1.08609        0.22267
C          1.29196        2.40363       -0.19045
C          0.83195        2.74624       -1.47803
C          0.65165        1.72242       -2.53863
C         -0.26048        0.65986       -2.40450
N         -1.13266        0.49880       -1.30688
C          1.38707        1.82996       -3.72926
C          1.24988        0.89919       -4.75588
C          0.34526       -0.15553       -4.61050
C         -0.41875       -0.26003       -3.45284
C          1.60190        3.41952        0.72881
C          1.37519        4.75678        0.41807
C          0.88340        5.10344       -0.84244
C          0.63814        4.10266       -1.78007
C         -2.51867        4.21285        1.78163
C         -1.82407        2.86532        1.57057
C         -2.39437        1.75124        2.45402
C         -1.69935        0.38981        2.30091
C          4.51232        1.42942        3.27587
C          3.77707        0.32819        2.50492
C          2.34109        0.14171        3.00120
C          1.56076       -1.06886        2.47095
H         -2.78329       -4.69808        0.04100
H         -0.41313       -5.38015       -0.11514
H         -3.87538        1.53124        0.00848
H         -6.15186        0.81982       -0.65727
H         -6.76238       -1.58123       -0.69091
H         -5.07301       -3.31225       -0.10344
H          2.25222       -5.34852       -0.64697
H          4.52388       -4.69567       -1.42464
H          5.27874       -2.34333       -1.24611
H          3.80445       -0.62125       -0.22173
H          2.09058        2.65234       -3.82823
H          1.84119        0.99737       -5.66186
H          0.22347       -0.88791       -5.40397
H         -1.15178       -1.05211       -3.33384
H          2.01257        3.13642        1.69318
H          1.59532        5.52555        1.15363
H          0.71041        6.14457       -1.09948
H          0.27856        4.36106       -2.77237
H         -2.06599        4.98775        1.15306
H         -3.58537        4.15389        1.53023
H         -2.44369        4.53865        2.82683
H         -0.75312        2.97381        1.77754
H         -1.89066        2.58730        0.51178
H         -3.47010        1.63887        2.27493
H         -2.29665        2.05191        3.50709
H         -0.64461        0.50909        2.57284
H         -2.12784       -0.31367        3.02482
H          5.53543        1.56281        2.90634
H          3.99558        2.39257        3.17253
H          4.56950        1.19928        4.34735
H          4.32476       -0.62011        2.59261
H          3.75125        0.58752        1.44421
H          1.77252        1.06033        2.81164
H          2.36163        0.02471        4.09555
H          2.10824       -1.98818        2.71048
H          0.62600       -1.12378        3.03698
H         -0.81156        0.55702       -1.53804
H         -0.49045        0.84064       -1.97018
